13
# CELL(abcABC): 10 10 10 90.0 90.0 90.0 Traj: positions{angstrom} cell{angstrom} Lattice="10 0.0 0.0 0.0 10 0.0 0.0 0.0 10" Properties=species:S:1:pos:R:3 pbc="F F F"
H -2.5049228320242301      -0.10518611443732302      -0.27669630845665560
H -2.8667245042322569      -0.69840999141147986        1.2379189504516155
H -1.2734280979518902      -0.68403663792618608       0.70035011691236049
O -2.2523216867557680      -0.74417817631464300       0.45082757344395036
H 0.76082028346008501       -1.4729181423281039        1.0465708848356745
H 0.78957788823675157       6.90677826278661006E-002   1.1569206678492516
O 0.20124909784034675      -0.70087485436478458        1.1720544335106993
H -3.0414663439218859       0.48739472863138750       -2.3372635154851684
H -3.2352543390482449        1.7008352879929189       -1.4096644202589153
O -2.8043958267209916       0.84157014429504995       -1.4785035043972810
H -3.8019810274376127      -0.20712620763055772        3.2288551917248749
H -4.4877294254661448       -1.4104397248179366        2.5758809694060472
O -3.9169269020637665      -0.65697396153018728        2.3891155459347329
