4
# CELL(abcABC): 10.0 10.0 10.0 90.0 90.0 90.0 Traj: positions{atomic_unit} cell{atomic_unit} Lattice="10.0 0.0 0.0 0.0 10.0 0.0 0.0 0.0 10.0" Properties=species:S:1:pos:R:3 unit=Bohr pbc="F F F"
H        3.39686420       3.70347918       2.50609768
H        3.47702419       5.44952918       4.86694419
H        4.12739418       6.04951919       2.09539619
O        3.73490419       4.71966819       3.27707620
